Version 4
SHEET 1 880 680
WIRE 288 -64 240 -64
WIRE 560 -64 368 -64
WIRE 144 48 48 48
WIRE 240 48 240 -64
WIRE 240 48 224 48
WIRE 288 48 240 48
WIRE 400 48 352 48
WIRE 48 96 48 48
WIRE 320 128 144 128
WIRE 240 144 240 48
WIRE 288 144 240 144
WIRE 400 160 400 48
WIRE 400 160 352 160
WIRE 448 160 400 160
WIRE 560 160 560 -64
WIRE 560 160 512 160
WIRE 640 160 560 160
WIRE 288 176 240 176
WIRE 48 208 48 176
WIRE 240 224 240 176
WIRE 144 288 144 128
WIRE 320 288 320 192
WIRE 144 400 144 368
WIRE 256 400 144 400
WIRE 320 400 320 368
WIRE 320 400 256 400
WIRE 256 432 256 400
FLAG 240 224 0
FLAG 48 208 0
FLAG 640 160 Vout
IOPIN 640 160 Out
FLAG 256 432 0
SYMBOL voltage 48 80 R0
WINDOW 123 0 0 Left 0
WINDOW 39 0 0 Left 0
SYMATTR InstName Vin
SYMATTR Value SINE(0 2 120 0 0 45)
SYMBOL res 240 32 R90
WINDOW 0 0 56 VBottom 2
WINDOW 3 32 56 VTop 2
SYMATTR InstName R1
SYMATTR Value 2k
SYMBOL res 384 -80 R90
WINDOW 0 0 56 VBottom 2
WINDOW 3 32 56 VTop 2
SYMATTR InstName R2
SYMATTR Value 2k
SYMBOL diode 352 32 R90
WINDOW 0 0 32 VBottom 2
WINDOW 3 32 32 VTop 2
SYMATTR InstName D1
SYMBOL Opamps\\AD549 320 96 R0
SYMATTR InstName U1
SYMBOL diode 512 144 R90
WINDOW 0 0 32 VBottom 2
WINDOW 3 32 32 VTop 2
SYMATTR InstName D2
SYMBOL voltage 144 272 R0
SYMATTR InstName V1
SYMATTR Value 15
SYMBOL voltage 320 272 R0
SYMATTR InstName V2
SYMATTR Value -15
TEXT 14 456 Left 2 !.tran 100m
