Version 4
SHEET 1 880 680
WIRE 80 -16 -32 -16
WIRE 192 -16 128 -16
WIRE 384 -16 272 -16
WIRE -32 16 -32 -16
WIRE 80 48 80 -16
WIRE 272 48 80 48
WIRE 272 64 272 48
WIRE 128 80 128 -16
WIRE 240 80 128 80
WIRE 384 96 384 -16
WIRE 384 96 304 96
WIRE 464 96 384 96
WIRE 240 112 192 112
WIRE -32 128 -32 96
WIRE 384 128 384 96
WIRE 272 176 272 128
WIRE 272 176 -32 176
WIRE -32 192 -32 176
WIRE 192 240 192 112
WIRE 384 240 384 208
WIRE 384 240 192 240
WIRE 128 256 128 80
WIRE 384 256 384 240
WIRE -32 304 -32 272
WIRE 128 352 128 320
WIRE 272 352 128 352
WIRE 384 352 384 336
WIRE 384 352 272 352
WIRE 272 368 272 352
FLAG 272 368 0
FLAG 464 96 Vout
IOPIN 464 96 Out
FLAG -32 128 0
FLAG -32 304 0
SYMBOL res 288 -32 R90
WINDOW 0 0 56 VBottom 2
WINDOW 3 32 56 VTop 2
SYMATTR InstName R1
SYMATTR Value 50k
SYMBOL res 368 112 R0
SYMATTR InstName R2
SYMATTR Value 35k
SYMBOL res 368 240 R0
SYMATTR InstName R3
SYMATTR Value 30k
SYMBOL voltage -32 0 R0
SYMATTR InstName V1
SYMATTR Value 100
SYMBOL voltage -32 176 R0
SYMATTR InstName V2
SYMATTR Value -100
SYMBOL Opamps\\AD549 272 32 R0
SYMATTR InstName U1
SYMBOL cap 112 256 R0
SYMATTR InstName C1
SYMATTR Value 0.01µF
TEXT 110 392 Left 2 !.tran 100m
