Version 4
SHEET 1 880 680
SYMBOL Opamps\\UniversalOpamp2 48 272 R0
SYMATTR InstName U2
SYMBOL Opamps\\UniversalOpamp2 400 128 R0
SYMATTR InstName U3
SYMBOL Opamps\\UniversalOpamp2 -16 0 R0
SYMATTR InstName U1
