Version 4
SHEET 1 880 680
WIRE 144 -32 128 -32
WIRE 240 -32 224 -32
WIRE 560 -32 384 -32
WIRE 128 16 128 -32
WIRE 384 16 384 -32
WIRE 560 16 560 -32
WIRE 240 64 240 -32
WIRE 320 64 240 64
WIRE 128 144 128 96
WIRE 560 144 560 96
WIRE 128 288 128 224
WIRE 384 288 384 112
WIRE 384 288 128 288
WIRE 560 288 560 224
WIRE 560 288 384 288
WIRE 384 320 384 288
FLAG 384 320 0
SYMBOL voltage 128 128 R0
WINDOW 123 0 0 Left 0
WINDOW 39 0 0 Left 0
SYMATTR InstName Vbb
SYMATTR Value 10
SYMBOL voltage 560 128 R0
WINDOW 123 0 0 Left 0
WINDOW 39 0 0 Left 0
SYMATTR InstName Vcc
SYMATTR Value 5
SYMBOL npn 320 16 R0
SYMATTR InstName Q1
SYMATTR Value 2N2222
SYMBOL res 112 0 R0
SYMATTR InstName R1
SYMATTR Value 1k
SYMBOL current 144 -32 R270
WINDOW 0 32 40 VTop 2
WINDOW 3 -32 40 VBottom 2
SYMATTR InstName Ib
SYMATTR Value 60
SYMBOL res 544 0 R0
SYMATTR InstName R2
SYMATTR Value 10
TEXT 254 -56 Left 2 !.dc Ib 10u 100u 1u
