Version 4
SHEET 1 880 680
WIRE 352 -80 304 -80
WIRE 352 -64 352 -80
WIRE 304 -32 304 -80
WIRE -96 48 -112 48
WIRE 0 48 -16 48
WIRE 176 48 160 48
WIRE 288 48 256 48
WIRE 0 64 0 48
WIRE 32 64 0 64
WIRE 128 64 112 64
WIRE 304 80 304 48
WIRE 304 80 208 80
WIRE -112 96 -112 48
WIRE -112 96 -144 96
WIRE 208 96 208 80
WIRE 128 112 128 64
WIRE 160 112 160 48
WIRE 160 112 128 112
WIRE 176 112 160 112
WIRE -144 128 -144 96
WIRE 288 128 288 48
WIRE 288 128 240 128
WIRE 304 128 288 128
WIRE 176 144 144 144
WIRE 32 160 -16 160
WIRE 128 160 128 112
WIRE 128 160 112 160
WIRE -112 176 -112 96
WIRE -96 176 -112 176
WIRE -16 176 -16 160
WIRE 144 176 144 144
WIRE 208 176 208 160
WIRE 208 272 208 256
FLAG 208 272 0
FLAG 144 176 0
FLAG 304 128 Vout
IOPIN 304 128 Out
FLAG 352 -64 0
FLAG -144 128 0
SYMBOL Opamps\\UniversalOpamp2 208 128 R0
SYMATTR InstName U1
SYMBOL res 128 48 R90
WINDOW 0 0 56 VBottom 2
WINDOW 3 32 56 VTop 2
SYMATTR InstName R1
SYMATTR Value 2k
SYMBOL res 128 144 R90
WINDOW 0 0 56 VBottom 2
WINDOW 3 32 56 VTop 2
SYMATTR InstName R2
SYMATTR Value 2k
SYMBOL res 272 32 R90
WINDOW 0 0 56 VBottom 2
WINDOW 3 32 56 VTop 2
SYMATTR InstName R3
SYMATTR Value 10k
SYMBOL voltage 208 160 R0
SYMATTR InstName -Vcc
SYMATTR Value -15V
SYMBOL voltage 0 48 R90
WINDOW 0 -32 56 VBottom 2
WINDOW 3 32 56 VTop 2
WINDOW 123 0 0 Left 0
WINDOW 39 0 0 Left 0
SYMATTR InstName V1
SYMATTR Value SINE(0 1 120)
SYMBOL voltage 0 176 R90
WINDOW 0 -32 56 VBottom 2
WINDOW 3 32 56 VTop 2
WINDOW 123 0 0 Left 0
WINDOW 39 0 0 Left 0
SYMATTR InstName V2
SYMATTR Value SINE(0 1 100)
SYMBOL voltage 304 64 R180
WINDOW 0 24 96 Left 2
WINDOW 3 24 16 Left 2
SYMATTR InstName Vcc
SYMATTR Value 15V
TEXT -164 296 Left 2 !.tran 1
