Version 4
SHEET 1 880 680
WIRE 352 -112 288 -112
WIRE 352 -96 352 -112
WIRE 288 -80 288 -112
WIRE 144 32 96 32
WIRE 256 32 224 32
WIRE -160 64 -176 64
WIRE -16 64 -80 64
WIRE 96 64 96 32
WIRE 96 64 64 64
WIRE 288 80 288 0
WIRE 288 80 176 80
WIRE 176 96 176 80
WIRE -176 112 -176 64
WIRE -176 112 -224 112
WIRE 96 112 96 64
WIRE 144 112 96 112
WIRE -224 128 -224 112
WIRE 256 128 256 32
WIRE 256 128 208 128
WIRE 304 128 256 128
WIRE 144 144 96 144
WIRE -176 192 -176 112
WIRE -160 192 -176 192
WIRE -32 192 -80 192
WIRE 96 192 96 144
WIRE 96 192 48 192
WIRE 176 192 176 160
WIRE 240 192 176 192
WIRE 96 208 96 192
WIRE 240 208 240 192
WIRE 96 320 96 288
WIRE 240 320 240 288
FLAG 304 128 Vout
IOPIN 304 128 Out
FLAG 96 320 0
FLAG -224 128 0
FLAG 352 -96 0
FLAG 240 320 0
SYMBOL Opamps\\UniversalOpamp2 176 128 R0
SYMATTR InstName U1
SYMBOL res 64 176 R90
WINDOW 0 0 56 VBottom 2
WINDOW 3 32 56 VTop 2
SYMATTR InstName R2
SYMATTR Value 10k
SYMBOL res 80 48 R90
WINDOW 0 0 56 VBottom 2
WINDOW 3 32 56 VTop 2
SYMATTR InstName R1
SYMATTR Value 10k
SYMBOL res 240 16 R90
WINDOW 0 0 56 VBottom 2
WINDOW 3 32 56 VTop 2
SYMATTR InstName R3
SYMATTR Value 22k
SYMBOL res 80 192 R0
SYMATTR InstName R4
SYMATTR Value 22k
SYMBOL voltage -64 64 R90
WINDOW 0 -32 56 VBottom 2
WINDOW 3 32 56 VTop 2
WINDOW 123 0 0 Left 0
WINDOW 39 0 0 Left 0
SYMATTR InstName V1
SYMATTR Value SINE(0 1 120)
SYMBOL voltage -64 192 R90
WINDOW 0 -32 56 VBottom 2
WINDOW 3 32 56 VTop 2
WINDOW 123 0 0 Left 0
WINDOW 39 0 0 Left 0
SYMATTR InstName V2
SYMATTR Value SINE(0 1 100)
SYMBOL voltage 288 16 R180
WINDOW 0 24 96 Left 2
WINDOW 3 24 16 Left 2
SYMATTR InstName Vcc
SYMATTR Value 15V
SYMBOL voltage 240 192 R0
SYMATTR InstName -Vcc
SYMATTR Value -15V
TEXT -52 288 Left 2 !.tran 1
