Version 4
SHEET 1 880 680
WIRE 464 -48 400 -48
WIRE 400 -32 400 -48
WIRE 464 -32 464 -48
WIRE 144 80 112 80
WIRE 240 80 208 80
WIRE 608 80 576 80
WIRE 720 80 688 80
WIRE 400 128 400 48
WIRE 400 128 160 128
WIRE 624 128 400 128
WIRE 16 144 -16 144
WIRE 112 144 112 80
WIRE 112 144 96 144
WIRE 128 144 112 144
WIRE 496 144 448 144
WIRE 576 144 576 80
WIRE 576 144 560 144
WIRE 592 144 576 144
WIRE 240 160 240 80
WIRE 240 160 192 160
WIRE 288 160 240 160
WIRE 720 160 720 80
WIRE 720 160 656 160
WIRE 736 160 720 160
WIRE 128 176 112 176
WIRE 592 176 576 176
WIRE -16 192 -16 144
WIRE 448 192 448 144
WIRE 112 224 112 176
WIRE 576 224 576 176
WIRE -16 288 -16 272
WIRE 448 288 448 272
WIRE 160 304 160 192
WIRE 384 304 160 304
WIRE 624 304 624 192
WIRE 624 304 384 304
WIRE 384 320 384 304
WIRE 384 432 384 400
FLAG 288 160 Vout_1
IOPIN 288 160 Out
FLAG 736 160 Vout_2
IOPIN 736 160 Out
FLAG 448 288 0
FLAG -16 288 0
FLAG 112 224 0
FLAG 576 224 0
FLAG 384 432 0
FLAG 464 -32 0
SYMBOL Opamps\\UniversalOpamp2 160 160 M180
SYMATTR InstName U1
SYMBOL Opamps\\UniversalOpamp2 624 160 M180
SYMATTR InstName U2
SYMBOL diode 496 160 R270
WINDOW 0 32 32 VTop 2
WINDOW 3 0 32 VBottom 2
SYMATTR InstName D2
SYMATTR Value 1N914
SYMBOL diode 144 96 R270
WINDOW 0 32 32 VTop 2
WINDOW 3 0 32 VBottom 2
SYMATTR InstName D1
SYMATTR Value 1N914
SYMBOL res 704 64 R90
WINDOW 0 0 56 VBottom 2
WINDOW 3 32 56 VTop 2
SYMATTR InstName R2
SYMATTR Value 5k
SYMBOL res 112 128 R90
WINDOW 0 0 56 VBottom 2
WINDOW 3 32 56 VTop 2
SYMATTR InstName R1
SYMATTR Value 5k
SYMBOL voltage -16 176 R0
WINDOW 123 0 0 Left 0
WINDOW 39 0 0 Left 0
SYMATTR InstName V1
SYMATTR Value SINE(5 5 1k)
SYMBOL voltage 448 176 R0
SYMATTR InstName V2
SYMATTR Value SINE(50 50 1k)
SYMBOL voltage 400 64 R180
WINDOW 0 24 96 Left 2
WINDOW 3 24 16 Left 2
SYMATTR InstName -Vcc
SYMATTR Value -15V
SYMBOL voltage 384 304 R0
SYMATTR InstName Vcc
SYMATTR Value 15V
TEXT 190 344 Left 2 !.tran 10m
