Version 4
SHEET 1 880 680
WIRE 336 -64 272 -64
WIRE 176 -48 128 -48
WIRE 272 -48 272 -64
WIRE 336 -48 336 -64
WIRE 176 -32 176 -48
WIRE 128 -16 128 -48
WIRE 128 96 128 64
WIRE 272 96 272 32
WIRE -48 112 -80 112
WIRE 96 112 32 112
WIRE 208 128 160 128
WIRE -80 144 -80 112
WIRE 96 144 64 144
WIRE 208 176 208 128
WIRE 224 176 208 176
WIRE 64 224 64 144
WIRE 272 224 272 192
WIRE 272 224 64 224
WIRE 304 224 272 224
WIRE 128 240 128 160
WIRE 272 240 272 224
WIRE 128 336 128 320
WIRE 272 336 272 320
FLAG 272 336 0
FLAG 176 -32 0
FLAG 128 336 0
FLAG 336 -48 0
FLAG -80 144 0
FLAG 304 224 Vout
IOPIN 304 224 Out
SYMBOL Opamps\\UniversalOpamp2 128 128 M180
SYMATTR InstName U1
SYMBOL nmos 224 96 R0
SYMATTR InstName M1
SYMBOL res 256 224 R0
SYMATTR InstName R1
SYMATTR Value 100k
SYMBOL voltage 128 80 R180
WINDOW 0 24 96 Left 2
WINDOW 3 24 16 Left 2
SYMATTR InstName -Vcc
SYMATTR Value -15V
SYMBOL voltage 128 224 R0
SYMATTR InstName Vcc
SYMATTR Value 15V
SYMBOL voltage 48 112 R90
WINDOW 0 -32 56 VBottom 2
WINDOW 3 32 56 VTop 2
WINDOW 123 0 0 Left 0
WINDOW 39 0 0 Left 0
SYMATTR InstName Vin
SYMATTR Value SINE(0 5 100)
SYMBOL voltage 272 48 R180
WINDOW 0 24 96 Left 2
WINDOW 3 24 16 Left 2
WINDOW 123 0 0 Left 0
WINDOW 39 0 0 Left 0
SYMATTR InstName Vsupply
SYMATTR Value 15V
TEXT -44 264 Left 2 !.tran 100m
