Version 4
SHEET 1 880 680
WIRE 288 0 240 0
WIRE 240 16 240 0
WIRE 288 16 288 0
WIRE 144 48 112 48
WIRE 304 48 144 48
WIRE 240 112 240 96
WIRE -48 128 -112 128
WIRE 48 128 48 48
WIRE 48 128 32 128
WIRE 144 128 112 128
WIRE 208 128 144 128
WIRE -112 144 -112 128
WIRE 304 144 304 48
WIRE 304 144 272 144
WIRE 320 144 304 144
WIRE 208 160 176 160
WIRE -48 192 -48 128
WIRE 16 192 -48 192
WIRE 128 192 96 192
WIRE 176 192 176 160
WIRE 176 192 128 192
WIRE 240 192 240 176
WIRE -112 256 -112 224
WIRE 128 288 128 272
WIRE 240 288 240 272
FLAG -112 256 0
FLAG 128 288 0
FLAG 240 288 0
FLAG 288 16 0
FLAG 320 144 Vout
IOPIN 320 144 Out
SYMBOL Opamps\\UniversalOpamp2 240 144 R0
SYMATTR InstName U1
SYMBOL voltage -112 128 R0
WINDOW 123 24 124 Left 2
WINDOW 39 0 0 Left 0
SYMATTR InstName V1
SYMATTR Value ""
SYMATTR Value2 AC 1 0
SYMBOL voltage 240 176 R0
WINDOW 3 -29 57 Left 2
SYMATTR InstName -Vcc
SYMATTR Value -15V
SYMBOL voltage 240 112 R180
WINDOW 0 24 96 Left 2
WINDOW 3 -23 56 Left 2
SYMATTR InstName Vcc
SYMATTR Value 15V
SYMBOL res 48 112 R90
WINDOW 0 0 56 VBottom 2
WINDOW 3 32 56 VTop 2
SYMATTR InstName R1
SYMATTR Value 80k
SYMBOL res 160 144 R180
WINDOW 0 4 74 Left 2
WINDOW 3 -9 44 Left 2
SYMATTR InstName R2
SYMATTR Value 320k
SYMBOL res 112 176 R90
WINDOW 0 0 56 VBottom 2
WINDOW 3 27 83 VTop 2
SYMATTR InstName R3
SYMATTR Value 50k
SYMBOL res 144 288 R180
WINDOW 0 -25 63 Left 2
WINDOW 3 36 40 Left 2
SYMATTR InstName R4
SYMATTR Value 50k
SYMBOL cap 112 32 R90
WINDOW 0 0 32 VBottom 2
WINDOW 3 -8 4 VTop 2
SYMATTR InstName C1
SYMATTR Value 1nF
SYMBOL cap 112 112 R90
WINDOW 0 0 32 VBottom 2
WINDOW 3 14 4 VTop 2
SYMATTR InstName C2
SYMATTR Value 1nF
TEXT 334 80 Left 2 !.ac dec 1000 100 3k
