Version 4
SHEET 1 880 680
WIRE 272 -48 224 -48
WIRE 272 -32 272 -48
WIRE 288 64 176 64
WIRE 384 64 368 64
WIRE 224 112 224 32
WIRE 64 128 32 128
WIRE 176 128 176 64
WIRE 176 128 144 128
WIRE 192 128 176 128
WIRE 384 144 384 64
WIRE 384 144 256 144
WIRE 400 144 384 144
WIRE 32 160 32 128
WIRE 192 160 144 160
WIRE 144 208 144 160
WIRE 240 208 144 208
WIRE 144 224 144 208
WIRE 240 256 240 208
WIRE 288 256 240 256
WIRE 384 256 384 144
WIRE 384 256 368 256
WIRE 224 288 224 176
WIRE 144 304 144 288
WIRE 224 384 224 368
FLAG 32 160 0
FLAG 144 304 0
FLAG 400 144 Vout
IOPIN 400 144 Out
FLAG 224 384 0
FLAG 272 -32 0
SYMBOL res 160 112 R90
WINDOW 0 0 56 VBottom 2
WINDOW 3 32 56 VTop 2
SYMATTR InstName R1
SYMATTR Value 30k
SYMBOL res 384 48 R90
WINDOW 0 0 56 VBottom 2
WINDOW 3 32 56 VTop 2
SYMATTR InstName R2
SYMATTR Value 35k
SYMBOL res 384 240 R90
WINDOW 0 0 56 VBottom 2
WINDOW 3 32 56 VTop 2
SYMATTR InstName R3
SYMATTR Value 50k
SYMBOL cap 128 224 R0
SYMATTR InstName C1
SYMATTR Value 0.01µF
SYMBOL voltage 224 272 R0
SYMATTR InstName Vcc
SYMATTR Value 15V
SYMBOL voltage 224 48 R180
WINDOW 0 24 96 Left 2
WINDOW 3 24 16 Left 2
SYMATTR InstName -Vcc
SYMATTR Value -15V
SYMBOL Opamps\\AD549 224 208 M180
SYMATTR InstName U1
TEXT -52 240 Left 2 !.tran 10m
